This is our very first file to add.

New line.

Line with same commit message.

Testing git diff No.2
